/*--------------------------------*- C++ -*----------------------------------*\
| =========                 |                                                 |
| \\      /  F ield         | OpenFOAM: The Open Source CFD Toolbox           |
|  \\    /   O peration     | Version:  v2412                                 |
|   \\  /    A nd           | Website:  www.openfoam.com                      |
|    \\/     M anipulation  |                                                 |
\*---------------------------------------------------------------------------*/
FoamFile
{
    version     2.0;
    format      ascii;
    class       dictionary;
    object      blockMeshDict;
}
// * * * * * * * * * * * * * * * * * * * * * * * * * * * * * * * * * * * * * //

scale   1;

xmin 0;
xmax 2.2;
ymin 0;
ymax 1.62;
zmin -0.05;
zmax 2.25;

deltax 0.025;
deltay 0.025;
deltaz 0.025;

lx 	#calc "$xmax - $xmin";
ly 	#calc "$ymax - $ymin";
lz 	#calc "$zmax - $zmin";

xcells 	#calc "round(($lx)/($deltax))";
ycells 	#calc "round(($ly)/($deltay))";
zcells 	#calc "round(($lz)/($deltaz))";

vertices
(
    ($xmin  $ymin  $zmin)
    ($xmax  $ymin  $zmin)
    ($xmax  $ymax  $zmin)
    ($xmin  $ymax  $zmin)
    ($xmin  $ymin  $zmax)
    ($xmax  $ymin  $zmax)
    ($xmax  $ymax  $zmax)
    ($xmin  $ymax  $zmax)
);

blocks
(
    hex (0 1 2 3 4 5 6 7) ($xcells $ycells $zcells) simpleGrading (1 1 1)
);

edges
(
);

boundary
(
    walls
    {
        type wall;
        faces
        (
            (3 7 6 2)
            (2 6 5 1)
            (0 3 2 1)
            (0 4 7 3)
            (4 5 6 7)
            (1 5 4 0)
        );
    }
);


// ************************************************************************* //
